Circuit: * E:\DROPBOX\IFSC\PROJETOS\ZÊNITE SOLAR\ELETRÔNICA\2016\CHOPPER-PMDC\SIMULAÇÃO\LTSPICE\PULSE_LC_.asc

.OP point found by inspection.

Date: Mon May 09 21:12:15 2016
Total elapsed time: 0.328 seconds.

tnom = 27
temp = 27
method = modified trap
totiter = 6048
traniter = 6048
tranpoints = 3025
accept = 3024
rejected = 1
matrix size = 3
fillins = 0
solver = Normal
Matrix Compiler1: 50 bytes object code size  0.4/0.8/[0.4]
Matrix Compiler2: 175 bytes object code size  0.8/0.8/[0.4]


